Circuit: * D:\User-Folders\Documents\BAC.doc\BAC\HW\receiver_circuit\receiver_circuit_ltspice.asc

Instance "m:u1:6": Length shorter than recommended for a level 2 MOSFET.
Instance "m:u1:5": Length shorter than recommended for a level 2 MOSFET.
Direct Newton iteration for .op point succeeded.

Date: Sat Apr 16 01:14:41 2022
Total elapsed time: 0.111 seconds.

tnom = 27
temp = 27
method = trap
totiter = 20
traniter = 0
tranpoints = 0
accept = 0
rejected = 0
matrix size = 43
fillins = 14
solver = Normal
Matrix Compiler1:     165 opcodes
Matrix Compiler2: 3.98 KB object code size
